Alim_Meia_Ponte_5_ORIGINAL/ChavesMT_2021126072_5002086_NTMBSR1PVTTR.dss
! Criação da seção de chaves MT
New "Line.CMT_5281595" phases=3 bus1="81463945002086.1.2.3" bus2="81463945002086B.1.2.3" r1=0.001 r0=0.001 x1=0 x0=0 c1=0 c0=0 length=0.001 switch=T
New "Line.CMT_5286666" phases=3 bus1="82034695002086.1.2.3" bus2="82034695002086B.1.2.3" r1=0.001 r0=0.001 x1=0 x0=0 c1=0 c0=0 length=0.001 switch=T
New "Line.CMT_5286668" phases=3 bus1="82034735002086.1.2.3" bus2="82034735002086B.1.2.3" r1=0.001 r0=0.001 x1=0 x0=0 c1=0 c0=0 length=0.001 switch=T
New "Line.CMT_5286669" phases=3 bus1="82044285002086.1.2.3" bus2="82044285002086B.1.2.3" r1=0.001 r0=0.001 x1=0 x0=0 c1=0 c0=0 length=0.001 switch=T
New "Line.CMT_5286671" phases=3 bus1="82054225002086.1.2.3" bus2="82054225002086B.1.2.3" r1=0.001 r0=0.001 x1=0 x0=0 c1=0 c0=0 length=0.001 switch=T
New "Line.CMT_5286672" phases=3 bus1="82061785002086.1.2.3" bus2="82061785002086B.1.2.3" r1=0.001 r0=0.001 x1=0 x0=0 c1=0 c0=0 length=0.001 switch=T
New "Line.CMT_5286673" phases=3 bus1="82021065002086.1.2.3" bus2="82021065002086B.1.2.3" r1=0.001 r0=0.001 x1=0 x0=0 c1=0 c0=0 length=0.001 switch=T
New "Line.CMT_5286723" phases=3 bus1="82021185002086.1.2.3" bus2="82021185002086B.1.2.3" r1=0.001 r0=0.001 x1=0 x0=0 c1=0 c0=0 length=0.001 switch=T
New "Line.CMT_5286724" phases=3 bus1="82021295002086.1.2.3" bus2="82021295002086B.1.2.3" r1=0.001 r0=0.001 x1=0 x0=0 c1=0 c0=0 length=0.001 switch=T
New "Line.CMT_5286725" phases=3 bus1="82020565002086.1.2.3" bus2="82020565002086B.1.2.3" r1=0.001 r0=0.001 x1=0 x0=0 c1=0 c0=0 length=0.001 switch=T
New "Line.CMT_5286726" phases=3 bus1="82020685002086.1.2.3" bus2="82020685002086B.1.2.3" r1=0.001 r0=0.001 x1=0 x0=0 c1=0 c0=0 length=0.001 switch=T
New "Line.CMT_5286727" phases=3 bus1="82022045002086.1.2.3" bus2="82022045002086B.1.2.3" r1=0.001 r0=0.001 x1=0 x0=0 c1=0 c0=0 length=0.001 switch=T
New "Line.CMT_5286728" phases=3 bus1="82032965002086.1.2.3" bus2="82032965002086B.1.2.3" r1=0.001 r0=0.001 x1=0 x0=0 c1=0 c0=0 length=0.001 switch=T
New "Line.CMT_5286729" phases=3 bus1="82033185002086.1.2.3" bus2="82033185002086B.1.2.3" r1=0.001 r0=0.001 x1=0 x0=0 c1=0 c0=0 length=0.001 switch=T
New "Line.CMT_5286730" phases=3 bus1="82024945002086.1.2.3" bus2="82024945002086B.1.2.3" r1=0.001 r0=0.001 x1=0 x0=0 c1=0 c0=0 length=0.001 switch=T
New "Line.CMT_5286733" phases=3 bus1="82035225002086.1.2.3" bus2="82035225002086B.1.2.3" r1=0.001 r0=0.001 x1=0 x0=0 c1=0 c0=0 length=0.001 switch=T
New "Line.CMT_5286734" phases=3 bus1="82036255002086.1.2.3" bus2="82036255002086B.1.2.3" r1=0.001 r0=0.001 x1=0 x0=0 c1=0 c0=0 length=0.001 switch=T
New "Line.CMT_5286735" phases=3 bus1="82027155002086.1.2.3" bus2="82027155002086B.1.2.3" r1=0.001 r0=0.001 x1=0 x0=0 c1=0 c0=0 length=0.001 switch=T
New "Line.CMT_5286738" phases=3 bus1="82026665002086.1.2.3" bus2="82026665002086B.1.2.3" r1=0.001 r0=0.001 x1=0 x0=0 c1=0 c0=0 length=0.001 switch=T
New "Line.CMT_5286745" phases=3 bus1="81488785002086.1.2.3" bus2="81488785002086B.1.2.3" r1=0.001 r0=0.001 x1=0 x0=0 c1=0 c0=0 length=0.001 switch=T
New "Line.CMT_5286747" phases=3 bus1="82041135002086.1.2.3" bus2="82041135002086B.1.2.3" r1=0.001 r0=0.001 x1=0 x0=0 c1=0 c0=0 length=0.001 switch=T
New "Line.CMT_5286748" phases=3 bus1="82041735002086.1.2.3" bus2="82041735002086B.1.2.3" r1=0.001 r0=0.001 x1=0 x0=0 c1=0 c0=0 length=0.001 switch=T
New "Line.CMT_5286749" phases=3 bus1="82041395002086.1.2.3" bus2="82041395002086B.1.2.3" r1=0.001 r0=0.001 x1=0 x0=0 c1=0 c0=0 length=0.001 switch=T
New "Line.CMT_5286750" phases=3 bus1="82041875002086.1.2.3" bus2="82041875002086B.1.2.3" r1=0.001 r0=0.001 x1=0 x0=0 c1=0 c0=0 length=0.001 switch=T
New "Line.CMT_5286751" phases=3 bus1="82038835002086.1.2.3" bus2="82038835002086B.1.2.3" r1=0.001 r0=0.001 x1=0 x0=0 c1=0 c0=0 length=0.001 switch=T
New "Line.CMT_5286764" phases=3 bus1="82053795002086.1.2.3" bus2="82053795002086B.1.2.3" r1=0.001 r0=0.001 x1=0 x0=0 c1=0 c0=0 length=0.001 switch=T
New "Line.CMT_5286765" phases=3 bus1="82062465002086.1.2.3" bus2="82062465002086B.1.2.3" r1=0.001 r0=0.001 x1=0 x0=0 c1=0 c0=0 length=0.001 switch=T
New "Line.CMT_5286773" phases=3 bus1="82056365002086.1.2.3" bus2="82056365002086B.1.2.3" r1=0.001 r0=0.001 x1=0 x0=0 c1=0 c0=0 length=0.001 switch=T
New "Line.CMT_5286780" phases=3 bus1="82040105002086.1.2.3" bus2="82040105002086B.1.2.3" r1=0.001 r0=0.001 x1=0 x0=0 c1=0 c0=0 length=0.001 switch=T
New "Line.CMT_5286781" phases=3 bus1="82039925002086.1.2.3" bus2="82039925002086B.1.2.3" r1=0.001 r0=0.001 x1=0 x0=0 c1=0 c0=0 length=0.001 switch=T
New "Line.CMT_5286948" phases=3 bus1="82032935002086.1.2.3" bus2="82032935002086B.1.2.3" r1=0.001 r0=0.001 x1=0 x0=0 c1=0 c0=0 length=0.001 switch=T
New "Line.CMT_5286952" phases=3 bus1="82049705002086.1.2.3" bus2="82049705002086B.1.2.3" r1=0.001 r0=0.001 x1=0 x0=0 c1=0 c0=0 length=0.001 switch=T
New "Line.CMT_5286954" phases=3 bus1="82050055002086.1.2.3" bus2="82050055002086B.1.2.3" r1=0.001 r0=0.001 x1=0 x0=0 c1=0 c0=0 length=0.001 switch=T
New "Line.CMT_5286957" phases=3 bus1="82040065002086.1.2.3" bus2="82040065002086B.1.2.3" r1=0.001 r0=0.001 x1=0 x0=0 c1=0 c0=0 length=0.001 switch=T
New "Line.CMT_5323940" phases=3 bus1="82062695002086.1.2.3" bus2="82062695002086B.1.2.3" r1=0.001 r0=0.001 x1=0 x0=0 c1=0 c0=0 length=0.001 switch=T
New "Line.CMT_5508800" phases=1 bus1="81489165002086.2" bus2="81489165002086B.2" r1=0.001 r0=0.001 x1=0 x0=0 c1=0 c0=0 length=0.001 switch=T
New "Line.CMT_5551605" phases=3 bus1="82049585002086.1.2.3" bus2="82049585002086B.1.2.3" r1=0.001 r0=0.001 x1=0 x0=0 c1=0 c0=0 length=0.001 switch=T
New "Line.CMT_5552857" phases=3 bus1="81461105002086.1.2.3" bus2="81461105002086B.1.2.3" r1=0.001 r0=0.001 x1=0 x0=0 c1=0 c0=0 length=0.001 switch=T
New "Line.CMT_5578546" phases=3 bus1="93435145002086.1.2.3" bus2="93435145002086B.1.2.3" r1=0.001 r0=0.001 x1=0 x0=0 c1=0 c0=0 length=0.001 switch=T
New "Line.CMT_5583771" phases=3 bus1="91074325002086B.1.2.3" bus2="91074325002086.1.2.3" r1=0.001 r0=0.001 x1=0 x0=0 c1=0 c0=0 length=0.001 switch=T
New "Line.CMT_5583773" phases=3 bus1="91074225002086B.1.2.3" bus2="91074225002086.1.2.3" r1=0.001 r0=0.001 x1=0 x0=0 c1=0 c0=0 length=0.001 switch=T
New "Line.CMT_5583775" phases=3 bus1="91074275002086.1.2.3" bus2="91074275002086B.1.2.3" r1=0.001 r0=0.001 x1=0 x0=0 c1=0 c0=0 length=0.001 switch=T
New "Line.CMT_5643544" phases=3 bus1="82054405002086.1.2.3" bus2="82054405002086B.1.2.3" r1=0.001 r0=0.001 x1=0 x0=0 c1=0 c0=0 length=0.001 switch=T
New "Line.CMT_5643564" phases=3 bus1="82049415002086.1.2.3" bus2="82049415002086B.1.2.3" r1=0.001 r0=0.001 x1=0 x0=0 c1=0 c0=0 length=0.001 switch=T
New "Line.CMT_5643565" phases=3 bus1="82050535002086.1.2.3" bus2="82050535002086B.1.2.3" r1=0.001 r0=0.001 x1=0 x0=0 c1=0 c0=0 length=0.001 switch=T
New "Line.CMT_5644923" phases=3 bus1="82039505002086.1.2.3" bus2="82039505002086B.1.2.3" r1=0.001 r0=0.001 x1=0 x0=0 c1=0 c0=0 length=0.001 switch=T
New "Line.CMT_5678387" phases=3 bus1="94074905002086.1.2.3" bus2="94074905002086B.1.2.3" r1=0.001 r0=0.001 x1=0 x0=0 c1=0 c0=0 length=0.001 switch=T
New "Line.CMT_5688531" phases=3 bus1="94324195002086.1.2.3" bus2="94324195002086B.1.2.3" r1=0.001 r0=0.001 x1=0 x0=0 c1=0 c0=0 length=0.001 switch=T
New "Line.CMT_5689023" phases=3 bus1="94336075002086.1.2.3" bus2="94336075002086B.1.2.3" r1=0.001 r0=0.001 x1=0 x0=0 c1=0 c0=0 length=0.001 switch=T
New "Line.CMT_5689028" phases=3 bus1="82049875002086B.1.2.3" bus2="82049875002086.1.2.3" r1=0.001 r0=0.001 x1=0 x0=0 c1=0 c0=0 length=0.001 switch=T
New "Line.CMT_5700356" phases=3 bus1="82021055002086.1.2.3" bus2="82021055002086B.1.2.3" r1=0.001 r0=0.001 x1=0 x0=0 c1=0 c0=0 length=0.001 switch=T
New "Line.CMT_5702013" phases=3 bus1="94562805002086.1.2.3" bus2="94562805002086B.1.2.3" r1=0.001 r0=0.001 x1=0 x0=0 c1=0 c0=0 length=0.001 switch=T
New "Line.CMT_5702435" phases=3 bus1="94329945002086.1.2.3" bus2="94329945002086B.1.2.3" r1=0.001 r0=0.001 x1=0 x0=0 c1=0 c0=0 length=0.001 switch=T
New "Line.CMT_5702629" phases=3 bus1="94511475002086.1.2.3" bus2="94511475002086B.1.2.3" r1=0.001 r0=0.001 x1=0 x0=0 c1=0 c0=0 length=0.001 switch=T
New "Line.CMT_5710501" phases=3 bus1="94777705002086.1.2.3" bus2="94777705002086B.1.2.3" r1=0.001 r0=0.001 x1=0 x0=0 c1=0 c0=0 length=0.001 switch=T
New "Line.CMT_5720545" phases=3 bus1="95200765002086.1.2.3" bus2="95200765002086B.1.2.3" r1=0.001 r0=0.001 x1=0 x0=0 c1=0 c0=0 length=0.001 switch=T
New "Line.CMT_5722432" phases=3 bus1="95217345002086.1.2.3" bus2="95217345002086B.1.2.3" r1=0.001 r0=0.001 x1=0 x0=0 c1=0 c0=0 length=0.001 switch=T
New "Line.CMT_5724674" phases=3 bus1="95404015002086.1.2.3" bus2="95404015002086B.1.2.3" r1=0.001 r0=0.001 x1=0 x0=0 c1=0 c0=0 length=0.001 switch=T
New "Line.CMT_5744154" phases=3 bus1="96264645002086.1.2.3" bus2="96264645002086B.1.2.3" r1=0.001 r0=0.001 x1=0 x0=0 c1=0 c0=0 length=0.001 switch=T
New "Line.CMT_5750091" phases=3 bus1="82064415002086B.1.2.3" bus2="82064415002086.1.2.3" r1=0.001 r0=0.001 x1=0 x0=0 c1=0 c0=0 length=0.001 switch=T
New "Line.CMT_DA0000250" phases=3 bus1="I888888516565002086B.1.2.3" bus2="I888888516565002086.1.2.3" r1=0.001 r0=0.001 x1=0 x0=0 c1=0 c0=0 length=0.001 switch=T
New "Line.CMT_SA0002741" phases=3 bus1="I888888516575002086B.1.2.3" bus2="I888888516575002086.1.2.3" r1=0.001 r0=0.001 x1=0 x0=0 c1=0 c0=0 length=0.001 switch=T
New "Line.CMT_SA0002742" phases=3 bus1="I888888516555002086B.1.2.3" bus2="I888888516555002086.1.2.3" r1=0.001 r0=0.001 x1=0 x0=0 c1=0 c0=0 length=0.001 switch=T
New "Line.CMT_SA0002751" phases=3 bus1="I888888340825002086.1.2.3" bus2="I888888340825002086B.1.2.3" r1=0.001 r0=0.001 x1=0 x0=0 c1=0 c0=0 length=0.001 switch=T
